*INCLUDE, INPUT=mesh_frame_gusset_clean.inp
*INCLUDE, INPUT=nsets_frame_gusset.inp
*INCLUDE, INPUT=tip_facial_surface_frame_gusset.inp

*NODE
132354, 60.0, 20.0, 60.0
*NSET, NSET=REF_TIP
132354

*MATERIAL, NAME=AL7075T6
*ELASTIC
71700., 0.33

*SOLID SECTION, ELSET=frame_gusset, MATERIAL=AL7075T6

*BOUNDARY
root, 1, 3

*COUPLING, REF NODE=132354, SURFACE=TIP_FACE, CONSTRAINT NAME=TIP_COUPLING
*DISTRIBUTING
1,3

*STEP
*STATIC

*CLOAD
132354, 1, -235.44

*NODE FILE
U,RF
*EL FILE
S
*END STEP
