*INCLUDE, INPUT=mesh_frame_clean.inp
*INCLUDE, INPUT=nsets_frame.inp
*INCLUDE, INPUT=tip_facial_surface_frame.inp

*NODE
11585, 60.0, 20.0, 60.0
*NSET, NSET=REF_TIP
11585

*MATERIAL, NAME=AL7075T6
*ELASTIC
71700., 0.33

*SOLID SECTION, ELSET=frame, MATERIAL=AL7075T6

*BOUNDARY
root, 1, 3

*COUPLING, REF NODE=11585, SURFACE=TIP_FACE, CONSTRAINT NAME=TIP_COUPLING
*DISTRIBUTING
1,3

*STEP
*STATIC

*CLOAD
11585, 1, -235.44

*NODE FILE
U,RF
*EL FILE
S
*END STEP
