*INCLUDE, INPUT=mesh_fillet_clean.inp
*INCLUDE, INPUT=nsets_fillet.inp
*INCLUDE, INPUT=tip_facial_surface_fillet.inp

*NODE
262724, 60.0, 20.0, 0.0
*NSET, NSET=REF_TIP
262724

*MATERIAL, NAME=AL7075T6
*ELASTIC
71700., 0.33

*SOLID SECTION, ELSET=plate, MATERIAL=AL7075T6

*BOUNDARY
root, 1, 3

*COUPLING, REF NODE=262724, SURFACE=TIP_FACE, CONSTRAINT NAME=TIP_COUPLING
*DISTRIBUTING
1,3

*STEP
*STATIC

*CLOAD
262724, 3, -235.44

*NODE FILE
U
*EL FILE
S
*END STEP
