** Project 01 - convergence study case
*INCLUDE, INPUT=mesh_clean.inp
*INCLUDE, INPUT=nsets.inp
*INCLUDE, INPUT=tip_facial_surface.inp

*NODE
50000, 60.0, 20.0, 2.0
*NSET, NSET=REF_TIP
50000

*MATERIAL, NAME=AL7075T6
*ELASTIC
71700., 0.33

*SOLID SECTION, ELSET=plate, MATERIAL=AL7075T6

*COUPLING, REF NODE=50000, SURFACE=TIP_FACE, CONSTRAINT NAME=TIP_COUPLING
*DISTRIBUTING
1,3

*BOUNDARY
root, 1, 3

*STEP
*STATIC

*CLOAD
50000, 3, -235.44

*NODE FILE
U
*EL FILE
S
*END STEP
